
---------- Begin Simulation Statistics ----------
simSeconds                                   0.030164                       # Number of seconds simulated (Second)
simTicks                                  30164473250                       # Number of ticks simulated (Tick)
finalTick                                779385065000                       # Number of ticks from beginning of simulation (restored from checkpoints and never reset) (Tick)
simFreq                                  1000000000000                       # The number of ticks per simulated second ((Tick/Second))
hostSeconds                                    242.65                       # Real time elapsed on the host (Second)
hostTickRate                                124313893                       # The number of ticks simulated per host second (ticks/s) ((Tick/Second))
hostMemory                                    4428396                       # Number of bytes of host memory used (Byte)
simInsts                                    100100006                       # Number of instructions simulated (Count)
simOps                                      194903288                       # Number of ops (including micro ops) simulated (Count)
hostInstRate                                   412532                       # Simulator instruction rate (inst/s) ((Count/Second))
hostOpRate                                     803235                       # Simulator op (including micro ops) rate (op/s) ((Count/Second))
system.clk_domain.clock                           333                       # Clock period in ticks (Tick)
system.cpu.numCycles                                0                       # Number of cpu cycles simulated (Cycle)
system.cpu.cpi                                    nan                       # CPI: cycles per instruction (core level) ((Cycle/Count))
system.cpu.ipc                                    nan                       # IPC: instructions per cycle (core level) ((Count/Cycle))
system.cpu.numWorkItemsStarted                      0                       # Number of work items this cpu started (Count)
system.cpu.numWorkItemsCompleted                    0                       # Number of work items this cpu completed (Count)
system.cpu.branchPred.lookups_0::NoBranch            0                       # Number of BP lookups (Count)
system.cpu.branchPred.lookups_0::Return             0                       # Number of BP lookups (Count)
system.cpu.branchPred.lookups_0::CallDirect            0                       # Number of BP lookups (Count)
system.cpu.branchPred.lookups_0::CallIndirect            0                       # Number of BP lookups (Count)
system.cpu.branchPred.lookups_0::DirectCond            0                       # Number of BP lookups (Count)
system.cpu.branchPred.lookups_0::DirectUncond            0                       # Number of BP lookups (Count)
system.cpu.branchPred.lookups_0::IndirectCond            0                       # Number of BP lookups (Count)
system.cpu.branchPred.lookups_0::IndirectUncond            0                       # Number of BP lookups (Count)
system.cpu.branchPred.lookups_0::total              0                       # Number of BP lookups (Count)
system.cpu.branchPred.squashes_0::NoBranch            0                       # Number of branches that got squashed (completely removed) as an earlier branch was mispredicted. (Count)
system.cpu.branchPred.squashes_0::Return            0                       # Number of branches that got squashed (completely removed) as an earlier branch was mispredicted. (Count)
system.cpu.branchPred.squashes_0::CallDirect            0                       # Number of branches that got squashed (completely removed) as an earlier branch was mispredicted. (Count)
system.cpu.branchPred.squashes_0::CallIndirect            0                       # Number of branches that got squashed (completely removed) as an earlier branch was mispredicted. (Count)
system.cpu.branchPred.squashes_0::DirectCond            0                       # Number of branches that got squashed (completely removed) as an earlier branch was mispredicted. (Count)
system.cpu.branchPred.squashes_0::DirectUncond            0                       # Number of branches that got squashed (completely removed) as an earlier branch was mispredicted. (Count)
system.cpu.branchPred.squashes_0::IndirectCond            0                       # Number of branches that got squashed (completely removed) as an earlier branch was mispredicted. (Count)
system.cpu.branchPred.squashes_0::IndirectUncond            0                       # Number of branches that got squashed (completely removed) as an earlier branch was mispredicted. (Count)
system.cpu.branchPred.squashes_0::total             0                       # Number of branches that got squashed (completely removed) as an earlier branch was mispredicted. (Count)
system.cpu.branchPred.corrected_0::NoBranch            0                       # Number of branches that got corrected but not yet commited. Branches get corrected by decode or after execute. Also a branch misprediction can be detected out-of-order. Therefore, a corrected branch might not end up beeing committed in case an even earlier branch was mispredicted (Count)
system.cpu.branchPred.corrected_0::Return            0                       # Number of branches that got corrected but not yet commited. Branches get corrected by decode or after execute. Also a branch misprediction can be detected out-of-order. Therefore, a corrected branch might not end up beeing committed in case an even earlier branch was mispredicted (Count)
system.cpu.branchPred.corrected_0::CallDirect            0                       # Number of branches that got corrected but not yet commited. Branches get corrected by decode or after execute. Also a branch misprediction can be detected out-of-order. Therefore, a corrected branch might not end up beeing committed in case an even earlier branch was mispredicted (Count)
system.cpu.branchPred.corrected_0::CallIndirect            0                       # Number of branches that got corrected but not yet commited. Branches get corrected by decode or after execute. Also a branch misprediction can be detected out-of-order. Therefore, a corrected branch might not end up beeing committed in case an even earlier branch was mispredicted (Count)
system.cpu.branchPred.corrected_0::DirectCond            0                       # Number of branches that got corrected but not yet commited. Branches get corrected by decode or after execute. Also a branch misprediction can be detected out-of-order. Therefore, a corrected branch might not end up beeing committed in case an even earlier branch was mispredicted (Count)
system.cpu.branchPred.corrected_0::DirectUncond            0                       # Number of branches that got corrected but not yet commited. Branches get corrected by decode or after execute. Also a branch misprediction can be detected out-of-order. Therefore, a corrected branch might not end up beeing committed in case an even earlier branch was mispredicted (Count)
system.cpu.branchPred.corrected_0::IndirectCond            0                       # Number of branches that got corrected but not yet commited. Branches get corrected by decode or after execute. Also a branch misprediction can be detected out-of-order. Therefore, a corrected branch might not end up beeing committed in case an even earlier branch was mispredicted (Count)
system.cpu.branchPred.corrected_0::IndirectUncond            0                       # Number of branches that got corrected but not yet commited. Branches get corrected by decode or after execute. Also a branch misprediction can be detected out-of-order. Therefore, a corrected branch might not end up beeing committed in case an even earlier branch was mispredicted (Count)
system.cpu.branchPred.corrected_0::total            0                       # Number of branches that got corrected but not yet commited. Branches get corrected by decode or after execute. Also a branch misprediction can be detected out-of-order. Therefore, a corrected branch might not end up beeing committed in case an even earlier branch was mispredicted (Count)
system.cpu.branchPred.earlyResteers_0::NoBranch            0                       # Number of branches that got redirected after decode. (Count)
system.cpu.branchPred.earlyResteers_0::Return            0                       # Number of branches that got redirected after decode. (Count)
system.cpu.branchPred.earlyResteers_0::CallDirect            0                       # Number of branches that got redirected after decode. (Count)
system.cpu.branchPred.earlyResteers_0::CallIndirect            0                       # Number of branches that got redirected after decode. (Count)
system.cpu.branchPred.earlyResteers_0::DirectCond            0                       # Number of branches that got redirected after decode. (Count)
system.cpu.branchPred.earlyResteers_0::DirectUncond            0                       # Number of branches that got redirected after decode. (Count)
system.cpu.branchPred.earlyResteers_0::IndirectCond            0                       # Number of branches that got redirected after decode. (Count)
system.cpu.branchPred.earlyResteers_0::IndirectUncond            0                       # Number of branches that got redirected after decode. (Count)
system.cpu.branchPred.earlyResteers_0::total            0                       # Number of branches that got redirected after decode. (Count)
system.cpu.branchPred.committed_0::NoBranch            0                       # Number of branches finally committed  (Count)
system.cpu.branchPred.committed_0::Return            0                       # Number of branches finally committed  (Count)
system.cpu.branchPred.committed_0::CallDirect            0                       # Number of branches finally committed  (Count)
system.cpu.branchPred.committed_0::CallIndirect            0                       # Number of branches finally committed  (Count)
system.cpu.branchPred.committed_0::DirectCond            0                       # Number of branches finally committed  (Count)
system.cpu.branchPred.committed_0::DirectUncond            0                       # Number of branches finally committed  (Count)
system.cpu.branchPred.committed_0::IndirectCond            0                       # Number of branches finally committed  (Count)
system.cpu.branchPred.committed_0::IndirectUncond            0                       # Number of branches finally committed  (Count)
system.cpu.branchPred.committed_0::total            0                       # Number of branches finally committed  (Count)
system.cpu.branchPred.mispredicted_0::NoBranch            0                       # Number of committed branches that were mispredicted. (Count)
system.cpu.branchPred.mispredicted_0::Return            0                       # Number of committed branches that were mispredicted. (Count)
system.cpu.branchPred.mispredicted_0::CallDirect            0                       # Number of committed branches that were mispredicted. (Count)
system.cpu.branchPred.mispredicted_0::CallIndirect            0                       # Number of committed branches that were mispredicted. (Count)
system.cpu.branchPred.mispredicted_0::DirectCond            0                       # Number of committed branches that were mispredicted. (Count)
system.cpu.branchPred.mispredicted_0::DirectUncond            0                       # Number of committed branches that were mispredicted. (Count)
system.cpu.branchPred.mispredicted_0::IndirectCond            0                       # Number of committed branches that were mispredicted. (Count)
system.cpu.branchPred.mispredicted_0::IndirectUncond            0                       # Number of committed branches that were mispredicted. (Count)
system.cpu.branchPred.mispredicted_0::total            0                       # Number of committed branches that were mispredicted. (Count)
system.cpu.branchPred.targetProvider_0::NoTarget            0                       # The component providing the target for taken branches (Count)
system.cpu.branchPred.targetProvider_0::BTB            0                       # The component providing the target for taken branches (Count)
system.cpu.branchPred.targetProvider_0::RAS            0                       # The component providing the target for taken branches (Count)
system.cpu.branchPred.targetProvider_0::Indirect            0                       # The component providing the target for taken branches (Count)
system.cpu.branchPred.targetProvider_0::total            0                       # The component providing the target for taken branches (Count)
system.cpu.branchPred.targetWrong_0::NoBranch            0                       # Number of branches where the target was incorrect or not available at prediction time. (Count)
system.cpu.branchPred.targetWrong_0::Return            0                       # Number of branches where the target was incorrect or not available at prediction time. (Count)
system.cpu.branchPred.targetWrong_0::CallDirect            0                       # Number of branches where the target was incorrect or not available at prediction time. (Count)
system.cpu.branchPred.targetWrong_0::CallIndirect            0                       # Number of branches where the target was incorrect or not available at prediction time. (Count)
system.cpu.branchPred.targetWrong_0::DirectCond            0                       # Number of branches where the target was incorrect or not available at prediction time. (Count)
system.cpu.branchPred.targetWrong_0::DirectUncond            0                       # Number of branches where the target was incorrect or not available at prediction time. (Count)
system.cpu.branchPred.targetWrong_0::IndirectCond            0                       # Number of branches where the target was incorrect or not available at prediction time. (Count)
system.cpu.branchPred.targetWrong_0::IndirectUncond            0                       # Number of branches where the target was incorrect or not available at prediction time. (Count)
system.cpu.branchPred.targetWrong_0::total            0                       # Number of branches where the target was incorrect or not available at prediction time. (Count)
system.cpu.branchPred.condPredicted                 0                       # Number of conditional branches predicted (Count)
system.cpu.branchPred.condPredictedTaken            0                       # Number of conditional branches predicted as taken (Count)
system.cpu.branchPred.condIncorrect                 0                       # Number of conditional branches incorrect (Count)
system.cpu.branchPred.predTakenBTBMiss              0                       # Number of branches predicted taken but missed in BTB (Count)
system.cpu.branchPred.NotTakenMispredicted            0                       # Number branches predicted 'not taken' but turned out to be taken (Count)
system.cpu.branchPred.TakenMispredicted             0                       # Number branches predicted taken but are actually not taken (Count)
system.cpu.branchPred.BTBLookups                    0                       # Number of BTB lookups (Count)
system.cpu.branchPred.BTBUpdates                    0                       # Number of BTB updates (Count)
system.cpu.branchPred.BTBHits                       0                       # Number of BTB hits (Count)
system.cpu.branchPred.BTBHitRatio                 nan                       # BTB Hit Ratio (Ratio)
system.cpu.branchPred.BTBMispredicted               0                       # Number BTB mispredictions. No target found or target wrong (Count)
system.cpu.branchPred.indirectLookups               0                       # Number of indirect predictor lookups. (Count)
system.cpu.branchPred.indirectHits                  0                       # Number of indirect target hits. (Count)
system.cpu.branchPred.indirectMisses                0                       # Number of indirect misses. (Count)
system.cpu.branchPred.indirectMispredicted            0                       # Number of mispredicted indirect branches. (Count)
system.cpu.branchPred.btb.lookups::NoBranch            0                       # Number of BTB lookups (Count)
system.cpu.branchPred.btb.lookups::Return            0                       # Number of BTB lookups (Count)
system.cpu.branchPred.btb.lookups::CallDirect            0                       # Number of BTB lookups (Count)
system.cpu.branchPred.btb.lookups::CallIndirect            0                       # Number of BTB lookups (Count)
system.cpu.branchPred.btb.lookups::DirectCond            0                       # Number of BTB lookups (Count)
system.cpu.branchPred.btb.lookups::DirectUncond            0                       # Number of BTB lookups (Count)
system.cpu.branchPred.btb.lookups::IndirectCond            0                       # Number of BTB lookups (Count)
system.cpu.branchPred.btb.lookups::IndirectUncond            0                       # Number of BTB lookups (Count)
system.cpu.branchPred.btb.lookups::total            0                       # Number of BTB lookups (Count)
system.cpu.branchPred.btb.misses::NoBranch            0                       # Number of BTB misses (Count)
system.cpu.branchPred.btb.misses::Return            0                       # Number of BTB misses (Count)
system.cpu.branchPred.btb.misses::CallDirect            0                       # Number of BTB misses (Count)
system.cpu.branchPred.btb.misses::CallIndirect            0                       # Number of BTB misses (Count)
system.cpu.branchPred.btb.misses::DirectCond            0                       # Number of BTB misses (Count)
system.cpu.branchPred.btb.misses::DirectUncond            0                       # Number of BTB misses (Count)
system.cpu.branchPred.btb.misses::IndirectCond            0                       # Number of BTB misses (Count)
system.cpu.branchPred.btb.misses::IndirectUncond            0                       # Number of BTB misses (Count)
system.cpu.branchPred.btb.misses::total             0                       # Number of BTB misses (Count)
system.cpu.branchPred.btb.updates::NoBranch            0                       # Number of BTB updates (Count)
system.cpu.branchPred.btb.updates::Return            0                       # Number of BTB updates (Count)
system.cpu.branchPred.btb.updates::CallDirect            0                       # Number of BTB updates (Count)
system.cpu.branchPred.btb.updates::CallIndirect            0                       # Number of BTB updates (Count)
system.cpu.branchPred.btb.updates::DirectCond            0                       # Number of BTB updates (Count)
system.cpu.branchPred.btb.updates::DirectUncond            0                       # Number of BTB updates (Count)
system.cpu.branchPred.btb.updates::IndirectCond            0                       # Number of BTB updates (Count)
system.cpu.branchPred.btb.updates::IndirectUncond            0                       # Number of BTB updates (Count)
system.cpu.branchPred.btb.updates::total            0                       # Number of BTB updates (Count)
system.cpu.branchPred.btb.mispredict::NoBranch            0                       # Number of BTB mispredictions. No target found or target wrong. (Count)
system.cpu.branchPred.btb.mispredict::Return            0                       # Number of BTB mispredictions. No target found or target wrong. (Count)
system.cpu.branchPred.btb.mispredict::CallDirect            0                       # Number of BTB mispredictions. No target found or target wrong. (Count)
system.cpu.branchPred.btb.mispredict::CallIndirect            0                       # Number of BTB mispredictions. No target found or target wrong. (Count)
system.cpu.branchPred.btb.mispredict::DirectCond            0                       # Number of BTB mispredictions. No target found or target wrong. (Count)
system.cpu.branchPred.btb.mispredict::DirectUncond            0                       # Number of BTB mispredictions. No target found or target wrong. (Count)
system.cpu.branchPred.btb.mispredict::IndirectCond            0                       # Number of BTB mispredictions. No target found or target wrong. (Count)
system.cpu.branchPred.btb.mispredict::IndirectUncond            0                       # Number of BTB mispredictions. No target found or target wrong. (Count)
system.cpu.branchPred.btb.mispredict::total            0                       # Number of BTB mispredictions. No target found or target wrong. (Count)
system.cpu.branchPred.btb.power_state.pwrStateResidencyTicks::UNDEFINED 779385065000                       # Cumulative time (in ticks) in various power states (Tick)
system.cpu.branchPred.indirectBranchPred.lookups            0                       # Number of lookups (Count)
system.cpu.branchPred.indirectBranchPred.hits            0                       # Number of hits of a tag (Count)
system.cpu.branchPred.indirectBranchPred.misses            0                       # Number of misses (Count)
system.cpu.branchPred.indirectBranchPred.targetRecords            0                       # Number of targets that where recorded/installed in the cache (Count)
system.cpu.branchPred.indirectBranchPred.indirectRecords            0                       # Number of indirect branches/calls recorded in the indirect hist (Count)
system.cpu.branchPred.indirectBranchPred.speculativeOverflows            0                       # Number of times more than the allowed capacity for speculative branches/calls where in flight and destroy the path history (Count)
system.cpu.branchPred.loop_predictor.used            0                       # Number of times the loop predictor is the provider. (Count)
system.cpu.branchPred.loop_predictor.correct            0                       # Number of times the loop predictor is the provider and the prediction is correct (Count)
system.cpu.branchPred.loop_predictor.wrong            0                       # Number of times the loop predictor is the provider and the prediction is wrong (Count)
system.cpu.branchPred.ras.pushes                    0                       # Number of times a PC was pushed onto the RAS (Count)
system.cpu.branchPred.ras.pops                      0                       # Number of times a PC was poped from the RAS (Count)
system.cpu.branchPred.ras.squashes                  0                       # Number of times the stack operation was squashed due to wrong speculation. (Count)
system.cpu.branchPred.ras.used                      0                       # Number of times the RAS is the provider (Count)
system.cpu.branchPred.ras.correct                   0                       # Number of times the RAS is the provider and the prediction is correct (Count)
system.cpu.branchPred.ras.incorrect                 0                       # Number of times the RAS is the provider and the prediction is wrong (Count)
system.cpu.branchPred.statistical_corrector.correct            0                       # Number of time the SC predictor is the provider and the prediction is correct (Count)
system.cpu.branchPred.statistical_corrector.wrong            0                       # Number of time the SC predictor is the provider and the prediction is wrong (Count)
system.cpu.branchPred.tage.longestMatchProviderCorrect            0                       # Number of times TAGE Longest Match is the provider and the prediction is correct (Count)
system.cpu.branchPred.tage.altMatchProviderCorrect            0                       # Number of times TAGE Alt Match is the provider and the prediction is correct (Count)
system.cpu.branchPred.tage.bimodalAltMatchProviderCorrect            0                       # Number of times TAGE Alt Match is the bimodal and it is the provider and the prediction is correct (Count)
system.cpu.branchPred.tage.bimodalProviderCorrect            0                       # Number of times there are no hits on the TAGE tables and the bimodal prediction is correct (Count)
system.cpu.branchPred.tage.longestMatchProviderWrong            0                       # Number of times TAGE Longest Match is the provider and the prediction is wrong (Count)
system.cpu.branchPred.tage.altMatchProviderWrong            0                       # Number of times TAGE Alt Match is the provider and the prediction is wrong (Count)
system.cpu.branchPred.tage.bimodalAltMatchProviderWrong            0                       # Number of times TAGE Alt Match is the bimodal and it is the provider and the prediction is wrong (Count)
system.cpu.branchPred.tage.bimodalProviderWrong            0                       # Number of times there are no hits on the TAGE tables and the bimodal prediction is wrong (Count)
system.cpu.branchPred.tage.altMatchProviderWouldHaveHit            0                       # Number of times TAGE Longest Match is the provider, the prediction is wrong and Alt Match prediction was correct (Count)
system.cpu.branchPred.tage.longestMatchProviderWouldHaveHit            0                       # Number of times TAGE Alt Match is the provider, the prediction is wrong and Longest Match prediction was correct (Count)
system.cpu.branchPred.tage.longestMatchProvider::0            0                       # TAGE provider for longest match (Count)
system.cpu.branchPred.tage.longestMatchProvider::1            0                       # TAGE provider for longest match (Count)
system.cpu.branchPred.tage.longestMatchProvider::2            0                       # TAGE provider for longest match (Count)
system.cpu.branchPred.tage.longestMatchProvider::3            0                       # TAGE provider for longest match (Count)
system.cpu.branchPred.tage.longestMatchProvider::4            0                       # TAGE provider for longest match (Count)
system.cpu.branchPred.tage.longestMatchProvider::5            0                       # TAGE provider for longest match (Count)
system.cpu.branchPred.tage.longestMatchProvider::6            0                       # TAGE provider for longest match (Count)
system.cpu.branchPred.tage.longestMatchProvider::7            0                       # TAGE provider for longest match (Count)
system.cpu.branchPred.tage.longestMatchProvider::8            0                       # TAGE provider for longest match (Count)
system.cpu.branchPred.tage.longestMatchProvider::9            0                       # TAGE provider for longest match (Count)
system.cpu.branchPred.tage.longestMatchProvider::10            0                       # TAGE provider for longest match (Count)
system.cpu.branchPred.tage.longestMatchProvider::11            0                       # TAGE provider for longest match (Count)
system.cpu.branchPred.tage.longestMatchProvider::12            0                       # TAGE provider for longest match (Count)
system.cpu.branchPred.tage.longestMatchProvider::13            0                       # TAGE provider for longest match (Count)
system.cpu.branchPred.tage.longestMatchProvider::14            0                       # TAGE provider for longest match (Count)
system.cpu.branchPred.tage.longestMatchProvider::15            0                       # TAGE provider for longest match (Count)
system.cpu.branchPred.tage.longestMatchProvider::16            0                       # TAGE provider for longest match (Count)
system.cpu.branchPred.tage.longestMatchProvider::17            0                       # TAGE provider for longest match (Count)
system.cpu.branchPred.tage.longestMatchProvider::18            0                       # TAGE provider for longest match (Count)
system.cpu.branchPred.tage.longestMatchProvider::19            0                       # TAGE provider for longest match (Count)
system.cpu.branchPred.tage.longestMatchProvider::20            0                       # TAGE provider for longest match (Count)
system.cpu.branchPred.tage.longestMatchProvider::21            0                       # TAGE provider for longest match (Count)
system.cpu.branchPred.tage.longestMatchProvider::22            0                       # TAGE provider for longest match (Count)
system.cpu.branchPred.tage.longestMatchProvider::23            0                       # TAGE provider for longest match (Count)
system.cpu.branchPred.tage.longestMatchProvider::24            0                       # TAGE provider for longest match (Count)
system.cpu.branchPred.tage.longestMatchProvider::25            0                       # TAGE provider for longest match (Count)
system.cpu.branchPred.tage.longestMatchProvider::26            0                       # TAGE provider for longest match (Count)
system.cpu.branchPred.tage.longestMatchProvider::27            0                       # TAGE provider for longest match (Count)
system.cpu.branchPred.tage.longestMatchProvider::28            0                       # TAGE provider for longest match (Count)
system.cpu.branchPred.tage.longestMatchProvider::29            0                       # TAGE provider for longest match (Count)
system.cpu.branchPred.tage.longestMatchProvider::30            0                       # TAGE provider for longest match (Count)
system.cpu.branchPred.tage.altMatchProvider::0            0                       # TAGE provider for alt match (Count)
system.cpu.branchPred.tage.altMatchProvider::1            0                       # TAGE provider for alt match (Count)
system.cpu.branchPred.tage.altMatchProvider::2            0                       # TAGE provider for alt match (Count)
system.cpu.branchPred.tage.altMatchProvider::3            0                       # TAGE provider for alt match (Count)
system.cpu.branchPred.tage.altMatchProvider::4            0                       # TAGE provider for alt match (Count)
system.cpu.branchPred.tage.altMatchProvider::5            0                       # TAGE provider for alt match (Count)
system.cpu.branchPred.tage.altMatchProvider::6            0                       # TAGE provider for alt match (Count)
system.cpu.branchPred.tage.altMatchProvider::7            0                       # TAGE provider for alt match (Count)
system.cpu.branchPred.tage.altMatchProvider::8            0                       # TAGE provider for alt match (Count)
system.cpu.branchPred.tage.altMatchProvider::9            0                       # TAGE provider for alt match (Count)
system.cpu.branchPred.tage.altMatchProvider::10            0                       # TAGE provider for alt match (Count)
system.cpu.branchPred.tage.altMatchProvider::11            0                       # TAGE provider for alt match (Count)
system.cpu.branchPred.tage.altMatchProvider::12            0                       # TAGE provider for alt match (Count)
system.cpu.branchPred.tage.altMatchProvider::13            0                       # TAGE provider for alt match (Count)
system.cpu.branchPred.tage.altMatchProvider::14            0                       # TAGE provider for alt match (Count)
system.cpu.branchPred.tage.altMatchProvider::15            0                       # TAGE provider for alt match (Count)
system.cpu.branchPred.tage.altMatchProvider::16            0                       # TAGE provider for alt match (Count)
system.cpu.branchPred.tage.altMatchProvider::17            0                       # TAGE provider for alt match (Count)
system.cpu.branchPred.tage.altMatchProvider::18            0                       # TAGE provider for alt match (Count)
system.cpu.branchPred.tage.altMatchProvider::19            0                       # TAGE provider for alt match (Count)
system.cpu.branchPred.tage.altMatchProvider::20            0                       # TAGE provider for alt match (Count)
system.cpu.branchPred.tage.altMatchProvider::21            0                       # TAGE provider for alt match (Count)
system.cpu.branchPred.tage.altMatchProvider::22            0                       # TAGE provider for alt match (Count)
system.cpu.branchPred.tage.altMatchProvider::23            0                       # TAGE provider for alt match (Count)
system.cpu.branchPred.tage.altMatchProvider::24            0                       # TAGE provider for alt match (Count)
system.cpu.branchPred.tage.altMatchProvider::25            0                       # TAGE provider for alt match (Count)
system.cpu.branchPred.tage.altMatchProvider::26            0                       # TAGE provider for alt match (Count)
system.cpu.branchPred.tage.altMatchProvider::27            0                       # TAGE provider for alt match (Count)
system.cpu.branchPred.tage.altMatchProvider::28            0                       # TAGE provider for alt match (Count)
system.cpu.branchPred.tage.altMatchProvider::29            0                       # TAGE provider for alt match (Count)
system.cpu.branchPred.tage.altMatchProvider::30            0                       # TAGE provider for alt match (Count)
system.cpu.commitStats0.numOps                      0                       # Number of ops (including micro ops) committed (thread level) (Count)
system.cpu.commitStats0.numInstsNotNOP              0                       # Number of instructions committed excluding NOPs or prefetches (Count)
system.cpu.commitStats0.numOpsNotNOP                0                       # Number of Ops (including micro ops) Simulated (Count)
system.cpu.commitStats0.cpi                       nan                       # CPI: cycles per instruction (thread level) ((Cycle/Count))
system.cpu.commitStats0.ipc                       nan                       # IPC: instructions per cycle (thread level) ((Count/Cycle))
system.cpu.commitStats0.numMemRefs                  0                       # Number of memory references committed (Count)
system.cpu.commitStats0.numFpInsts                  0                       # Number of float instructions (Count)
system.cpu.commitStats0.numIntInsts                 0                       # Number of integer instructions (Count)
system.cpu.commitStats0.numLoadInsts                0                       # Number of load instructions (Count)
system.cpu.commitStats0.numStoreInsts               0                       # Number of store instructions (Count)
system.cpu.commitStats0.numVecInsts                 0                       # Number of vector instructions (Count)
system.cpu.commitStats0.committedInstType::No_OpClass            0                       # Class of committed instruction. (Count)
system.cpu.commitStats0.committedInstType::IntAlu            0                       # Class of committed instruction. (Count)
system.cpu.commitStats0.committedInstType::IntMult            0                       # Class of committed instruction. (Count)
system.cpu.commitStats0.committedInstType::IntDiv            0                       # Class of committed instruction. (Count)
system.cpu.commitStats0.committedInstType::FloatAdd            0                       # Class of committed instruction. (Count)
system.cpu.commitStats0.committedInstType::FloatCmp            0                       # Class of committed instruction. (Count)
system.cpu.commitStats0.committedInstType::FloatCvt            0                       # Class of committed instruction. (Count)
system.cpu.commitStats0.committedInstType::FloatMult            0                       # Class of committed instruction. (Count)
system.cpu.commitStats0.committedInstType::FloatMultAcc            0                       # Class of committed instruction. (Count)
system.cpu.commitStats0.committedInstType::FloatDiv            0                       # Class of committed instruction. (Count)
system.cpu.commitStats0.committedInstType::FloatMisc            0                       # Class of committed instruction. (Count)
system.cpu.commitStats0.committedInstType::FloatSqrt            0                       # Class of committed instruction. (Count)
system.cpu.commitStats0.committedInstType::SimdAdd            0                       # Class of committed instruction. (Count)
system.cpu.commitStats0.committedInstType::SimdAddAcc            0                       # Class of committed instruction. (Count)
system.cpu.commitStats0.committedInstType::SimdAlu            0                       # Class of committed instruction. (Count)
system.cpu.commitStats0.committedInstType::SimdCmp            0                       # Class of committed instruction. (Count)
system.cpu.commitStats0.committedInstType::SimdCvt            0                       # Class of committed instruction. (Count)
system.cpu.commitStats0.committedInstType::SimdMisc            0                       # Class of committed instruction. (Count)
system.cpu.commitStats0.committedInstType::SimdMult            0                       # Class of committed instruction. (Count)
system.cpu.commitStats0.committedInstType::SimdMultAcc            0                       # Class of committed instruction. (Count)
system.cpu.commitStats0.committedInstType::SimdMatMultAcc            0                       # Class of committed instruction. (Count)
system.cpu.commitStats0.committedInstType::SimdShift            0                       # Class of committed instruction. (Count)
system.cpu.commitStats0.committedInstType::SimdShiftAcc            0                       # Class of committed instruction. (Count)
system.cpu.commitStats0.committedInstType::SimdDiv            0                       # Class of committed instruction. (Count)
system.cpu.commitStats0.committedInstType::SimdSqrt            0                       # Class of committed instruction. (Count)
system.cpu.commitStats0.committedInstType::SimdFloatAdd            0                       # Class of committed instruction. (Count)
system.cpu.commitStats0.committedInstType::SimdFloatAlu            0                       # Class of committed instruction. (Count)
system.cpu.commitStats0.committedInstType::SimdFloatCmp            0                       # Class of committed instruction. (Count)
system.cpu.commitStats0.committedInstType::SimdFloatCvt            0                       # Class of committed instruction. (Count)
system.cpu.commitStats0.committedInstType::SimdFloatDiv            0                       # Class of committed instruction. (Count)
system.cpu.commitStats0.committedInstType::SimdFloatMisc            0                       # Class of committed instruction. (Count)
system.cpu.commitStats0.committedInstType::SimdFloatMult            0                       # Class of committed instruction. (Count)
system.cpu.commitStats0.committedInstType::SimdFloatMultAcc            0                       # Class of committed instruction. (Count)
system.cpu.commitStats0.committedInstType::SimdFloatMatMultAcc            0                       # Class of committed instruction. (Count)
system.cpu.commitStats0.committedInstType::SimdFloatSqrt            0                       # Class of committed instruction. (Count)
system.cpu.commitStats0.committedInstType::SimdReduceAdd            0                       # Class of committed instruction. (Count)
system.cpu.commitStats0.committedInstType::SimdReduceAlu            0                       # Class of committed instruction. (Count)
system.cpu.commitStats0.committedInstType::SimdReduceCmp            0                       # Class of committed instruction. (Count)
system.cpu.commitStats0.committedInstType::SimdFloatReduceAdd            0                       # Class of committed instruction. (Count)
system.cpu.commitStats0.committedInstType::SimdFloatReduceCmp            0                       # Class of committed instruction. (Count)
system.cpu.commitStats0.committedInstType::SimdAes            0                       # Class of committed instruction. (Count)
system.cpu.commitStats0.committedInstType::SimdAesMix            0                       # Class of committed instruction. (Count)
system.cpu.commitStats0.committedInstType::SimdSha1Hash            0                       # Class of committed instruction. (Count)
system.cpu.commitStats0.committedInstType::SimdSha1Hash2            0                       # Class of committed instruction. (Count)
system.cpu.commitStats0.committedInstType::SimdSha256Hash            0                       # Class of committed instruction. (Count)
system.cpu.commitStats0.committedInstType::SimdSha256Hash2            0                       # Class of committed instruction. (Count)
system.cpu.commitStats0.committedInstType::SimdShaSigma2            0                       # Class of committed instruction. (Count)
system.cpu.commitStats0.committedInstType::SimdShaSigma3            0                       # Class of committed instruction. (Count)
system.cpu.commitStats0.committedInstType::SimdPredAlu            0                       # Class of committed instruction. (Count)
system.cpu.commitStats0.committedInstType::Matrix            0                       # Class of committed instruction. (Count)
system.cpu.commitStats0.committedInstType::MatrixMov            0                       # Class of committed instruction. (Count)
system.cpu.commitStats0.committedInstType::MatrixOP            0                       # Class of committed instruction. (Count)
system.cpu.commitStats0.committedInstType::MemRead            0                       # Class of committed instruction. (Count)
system.cpu.commitStats0.committedInstType::MemWrite            0                       # Class of committed instruction. (Count)
system.cpu.commitStats0.committedInstType::FloatMemRead            0                       # Class of committed instruction. (Count)
system.cpu.commitStats0.committedInstType::FloatMemWrite            0                       # Class of committed instruction. (Count)
system.cpu.commitStats0.committedInstType::IprAccess            0                       # Class of committed instruction. (Count)
system.cpu.commitStats0.committedInstType::InstPrefetch            0                       # Class of committed instruction. (Count)
system.cpu.commitStats0.committedInstType::SimdUnitStrideLoad            0                       # Class of committed instruction. (Count)
system.cpu.commitStats0.committedInstType::SimdUnitStrideStore            0                       # Class of committed instruction. (Count)
system.cpu.commitStats0.committedInstType::SimdUnitStrideMaskLoad            0                       # Class of committed instruction. (Count)
system.cpu.commitStats0.committedInstType::SimdUnitStrideMaskStore            0                       # Class of committed instruction. (Count)
system.cpu.commitStats0.committedInstType::SimdStridedLoad            0                       # Class of committed instruction. (Count)
system.cpu.commitStats0.committedInstType::SimdStridedStore            0                       # Class of committed instruction. (Count)
system.cpu.commitStats0.committedInstType::SimdIndexedLoad            0                       # Class of committed instruction. (Count)
system.cpu.commitStats0.committedInstType::SimdIndexedStore            0                       # Class of committed instruction. (Count)
system.cpu.commitStats0.committedInstType::SimdWholeRegisterLoad            0                       # Class of committed instruction. (Count)
system.cpu.commitStats0.committedInstType::SimdWholeRegisterStore            0                       # Class of committed instruction. (Count)
system.cpu.commitStats0.committedInstType::SimdUnitStrideFaultOnlyFirstLoad            0                       # Class of committed instruction. (Count)
system.cpu.commitStats0.committedInstType::SimdUnitStrideSegmentedLoad            0                       # Class of committed instruction. (Count)
system.cpu.commitStats0.committedInstType::SimdUnitStrideSegmentedStore            0                       # Class of committed instruction. (Count)
system.cpu.commitStats0.committedInstType::SimdExt            0                       # Class of committed instruction. (Count)
system.cpu.commitStats0.committedInstType::SimdFloatExt            0                       # Class of committed instruction. (Count)
system.cpu.commitStats0.committedInstType::SimdConfig            0                       # Class of committed instruction. (Count)
system.cpu.commitStats0.committedInstType::total            0                       # Class of committed instruction. (Count)
system.cpu.dcache.demandHits::switch_cpus_1.data     20315833                       # number of demand (read+write) hits (Count)
system.cpu.dcache.demandHits::total          20315833                       # number of demand (read+write) hits (Count)
system.cpu.dcache.overallHits::switch_cpus_1.data     20315833                       # number of overall hits (Count)
system.cpu.dcache.overallHits::total         20315833                       # number of overall hits (Count)
system.cpu.dcache.demandMisses::switch_cpus_1.data       980056                       # number of demand (read+write) misses (Count)
system.cpu.dcache.demandMisses::total          980056                       # number of demand (read+write) misses (Count)
system.cpu.dcache.overallMisses::switch_cpus_1.data       980056                       # number of overall misses (Count)
system.cpu.dcache.overallMisses::total         980056                       # number of overall misses (Count)
system.cpu.dcache.demandMissLatency::switch_cpus_1.data  39001742569                       # number of demand (read+write) miss ticks (Tick)
system.cpu.dcache.demandMissLatency::total  39001742569                       # number of demand (read+write) miss ticks (Tick)
system.cpu.dcache.overallMissLatency::switch_cpus_1.data  39001742569                       # number of overall miss ticks (Tick)
system.cpu.dcache.overallMissLatency::total  39001742569                       # number of overall miss ticks (Tick)
system.cpu.dcache.demandAccesses::switch_cpus_1.data     21295889                       # number of demand (read+write) accesses (Count)
system.cpu.dcache.demandAccesses::total      21295889                       # number of demand (read+write) accesses (Count)
system.cpu.dcache.overallAccesses::switch_cpus_1.data     21295889                       # number of overall (read+write) accesses (Count)
system.cpu.dcache.overallAccesses::total     21295889                       # number of overall (read+write) accesses (Count)
system.cpu.dcache.demandMissRate::switch_cpus_1.data     0.046021                       # miss rate for demand accesses (Ratio)
system.cpu.dcache.demandMissRate::total      0.046021                       # miss rate for demand accesses (Ratio)
system.cpu.dcache.overallMissRate::switch_cpus_1.data     0.046021                       # miss rate for overall accesses (Ratio)
system.cpu.dcache.overallMissRate::total     0.046021                       # miss rate for overall accesses (Ratio)
system.cpu.dcache.demandAvgMissLatency::switch_cpus_1.data 39795.422475                       # average overall miss latency in ticks ((Tick/Count))
system.cpu.dcache.demandAvgMissLatency::total 39795.422475                       # average overall miss latency in ticks ((Tick/Count))
system.cpu.dcache.overallAvgMissLatency::switch_cpus_1.data 39795.422475                       # average overall miss latency ((Tick/Count))
system.cpu.dcache.overallAvgMissLatency::total 39795.422475                       # average overall miss latency ((Tick/Count))
system.cpu.dcache.blockedCycles::no_mshrs      2419260                       # number of cycles access was blocked (Cycle)
system.cpu.dcache.blockedCycles::no_targets            0                       # number of cycles access was blocked (Cycle)
system.cpu.dcache.blockedCauses::no_mshrs       106592                       # number of times access was blocked (Count)
system.cpu.dcache.blockedCauses::no_targets            0                       # number of times access was blocked (Count)
system.cpu.dcache.avgBlocked::no_mshrs      22.696450                       # average number of cycles each access was blocked ((Cycle/Count))
system.cpu.dcache.avgBlocked::no_targets          nan                       # average number of cycles each access was blocked ((Cycle/Count))
system.cpu.dcache.writebacks::writebacks       562889                       # number of writebacks (Count)
system.cpu.dcache.writebacks::total            562889                       # number of writebacks (Count)
system.cpu.dcache.demandMshrHits::switch_cpus_1.data       236319                       # number of demand (read+write) MSHR hits (Count)
system.cpu.dcache.demandMshrHits::total        236319                       # number of demand (read+write) MSHR hits (Count)
system.cpu.dcache.overallMshrHits::switch_cpus_1.data       236319                       # number of overall MSHR hits (Count)
system.cpu.dcache.overallMshrHits::total       236319                       # number of overall MSHR hits (Count)
system.cpu.dcache.demandMshrMisses::switch_cpus_1.data       743737                       # number of demand (read+write) MSHR misses (Count)
system.cpu.dcache.demandMshrMisses::total       743737                       # number of demand (read+write) MSHR misses (Count)
system.cpu.dcache.overallMshrMisses::switch_cpus_1.data       743737                       # number of overall MSHR misses (Count)
system.cpu.dcache.overallMshrMisses::total       743737                       # number of overall MSHR misses (Count)
system.cpu.dcache.demandMshrMissLatency::switch_cpus_1.data  25762474069                       # number of demand (read+write) MSHR miss ticks (Tick)
system.cpu.dcache.demandMshrMissLatency::total  25762474069                       # number of demand (read+write) MSHR miss ticks (Tick)
system.cpu.dcache.overallMshrMissLatency::switch_cpus_1.data  25762474069                       # number of overall MSHR miss ticks (Tick)
system.cpu.dcache.overallMshrMissLatency::total  25762474069                       # number of overall MSHR miss ticks (Tick)
system.cpu.dcache.demandMshrMissRate::switch_cpus_1.data     0.034924                       # mshr miss ratio for demand accesses (Ratio)
system.cpu.dcache.demandMshrMissRate::total     0.034924                       # mshr miss ratio for demand accesses (Ratio)
system.cpu.dcache.overallMshrMissRate::switch_cpus_1.data     0.034924                       # mshr miss ratio for overall accesses (Ratio)
system.cpu.dcache.overallMshrMissRate::total     0.034924                       # mshr miss ratio for overall accesses (Ratio)
system.cpu.dcache.demandAvgMshrMissLatency::switch_cpus_1.data 34639.226056                       # average overall mshr miss latency ((Tick/Count))
system.cpu.dcache.demandAvgMshrMissLatency::total 34639.226056                       # average overall mshr miss latency ((Tick/Count))
system.cpu.dcache.overallAvgMshrMissLatency::switch_cpus_1.data 34639.226056                       # average overall mshr miss latency ((Tick/Count))
system.cpu.dcache.overallAvgMshrMissLatency::total 34639.226056                       # average overall mshr miss latency ((Tick/Count))
system.cpu.dcache.replacements                 743737                       # number of replacements (Count)
system.cpu.dcache.ReadReq.hits::switch_cpus_1.data     12698454                       # number of ReadReq hits (Count)
system.cpu.dcache.ReadReq.hits::total        12698454                       # number of ReadReq hits (Count)
system.cpu.dcache.ReadReq.misses::switch_cpus_1.data       674770                       # number of ReadReq misses (Count)
system.cpu.dcache.ReadReq.misses::total        674770                       # number of ReadReq misses (Count)
system.cpu.dcache.ReadReq.missLatency::switch_cpus_1.data  27314396000                       # number of ReadReq miss ticks (Tick)
system.cpu.dcache.ReadReq.missLatency::total  27314396000                       # number of ReadReq miss ticks (Tick)
system.cpu.dcache.ReadReq.accesses::switch_cpus_1.data     13373224                       # number of ReadReq accesses(hits+misses) (Count)
system.cpu.dcache.ReadReq.accesses::total     13373224                       # number of ReadReq accesses(hits+misses) (Count)
system.cpu.dcache.ReadReq.missRate::switch_cpus_1.data     0.050457                       # miss rate for ReadReq accesses (Ratio)
system.cpu.dcache.ReadReq.missRate::total     0.050457                       # miss rate for ReadReq accesses (Ratio)
system.cpu.dcache.ReadReq.avgMissLatency::switch_cpus_1.data 40479.564889                       # average ReadReq miss latency ((Tick/Count))
system.cpu.dcache.ReadReq.avgMissLatency::total 40479.564889                       # average ReadReq miss latency ((Tick/Count))
system.cpu.dcache.ReadReq.mshrHits::switch_cpus_1.data       236259                       # number of ReadReq MSHR hits (Count)
system.cpu.dcache.ReadReq.mshrHits::total       236259                       # number of ReadReq MSHR hits (Count)
system.cpu.dcache.ReadReq.mshrMisses::switch_cpus_1.data       438511                       # number of ReadReq MSHR misses (Count)
system.cpu.dcache.ReadReq.mshrMisses::total       438511                       # number of ReadReq MSHR misses (Count)
system.cpu.dcache.ReadReq.mshrMissLatency::switch_cpus_1.data  14380954000                       # number of ReadReq MSHR miss ticks (Tick)
system.cpu.dcache.ReadReq.mshrMissLatency::total  14380954000                       # number of ReadReq MSHR miss ticks (Tick)
system.cpu.dcache.ReadReq.mshrMissRate::switch_cpus_1.data     0.032790                       # mshr miss rate for ReadReq accesses (Ratio)
system.cpu.dcache.ReadReq.mshrMissRate::total     0.032790                       # mshr miss rate for ReadReq accesses (Ratio)
system.cpu.dcache.ReadReq.avgMshrMissLatency::switch_cpus_1.data 32794.967515                       # average ReadReq mshr miss latency ((Tick/Count))
system.cpu.dcache.ReadReq.avgMshrMissLatency::total 32794.967515                       # average ReadReq mshr miss latency ((Tick/Count))
system.cpu.dcache.WriteReq.hits::switch_cpus_1.data      7617379                       # number of WriteReq hits (Count)
system.cpu.dcache.WriteReq.hits::total        7617379                       # number of WriteReq hits (Count)
system.cpu.dcache.WriteReq.misses::switch_cpus_1.data       305286                       # number of WriteReq misses (Count)
system.cpu.dcache.WriteReq.misses::total       305286                       # number of WriteReq misses (Count)
system.cpu.dcache.WriteReq.missLatency::switch_cpus_1.data  11687346569                       # number of WriteReq miss ticks (Tick)
system.cpu.dcache.WriteReq.missLatency::total  11687346569                       # number of WriteReq miss ticks (Tick)
system.cpu.dcache.WriteReq.accesses::switch_cpus_1.data      7922665                       # number of WriteReq accesses(hits+misses) (Count)
system.cpu.dcache.WriteReq.accesses::total      7922665                       # number of WriteReq accesses(hits+misses) (Count)
system.cpu.dcache.WriteReq.missRate::switch_cpus_1.data     0.038533                       # miss rate for WriteReq accesses (Ratio)
system.cpu.dcache.WriteReq.missRate::total     0.038533                       # miss rate for WriteReq accesses (Ratio)
system.cpu.dcache.WriteReq.avgMissLatency::switch_cpus_1.data 38283.270668                       # average WriteReq miss latency ((Tick/Count))
system.cpu.dcache.WriteReq.avgMissLatency::total 38283.270668                       # average WriteReq miss latency ((Tick/Count))
system.cpu.dcache.WriteReq.mshrHits::switch_cpus_1.data           60                       # number of WriteReq MSHR hits (Count)
system.cpu.dcache.WriteReq.mshrHits::total           60                       # number of WriteReq MSHR hits (Count)
system.cpu.dcache.WriteReq.mshrMisses::switch_cpus_1.data       305226                       # number of WriteReq MSHR misses (Count)
system.cpu.dcache.WriteReq.mshrMisses::total       305226                       # number of WriteReq MSHR misses (Count)
system.cpu.dcache.WriteReq.mshrMissLatency::switch_cpus_1.data  11381520069                       # number of WriteReq MSHR miss ticks (Tick)
system.cpu.dcache.WriteReq.mshrMissLatency::total  11381520069                       # number of WriteReq MSHR miss ticks (Tick)
system.cpu.dcache.WriteReq.mshrMissRate::switch_cpus_1.data     0.038526                       # mshr miss rate for WriteReq accesses (Ratio)
system.cpu.dcache.WriteReq.mshrMissRate::total     0.038526                       # mshr miss rate for WriteReq accesses (Ratio)
system.cpu.dcache.WriteReq.avgMshrMissLatency::switch_cpus_1.data 37288.828832                       # average WriteReq mshr miss latency ((Tick/Count))
system.cpu.dcache.WriteReq.avgMshrMissLatency::total 37288.828832                       # average WriteReq mshr miss latency ((Tick/Count))
system.cpu.dcache.power_state.pwrStateResidencyTicks::UNDEFINED 779385065000                       # Cumulative time (in ticks) in various power states (Tick)
system.cpu.dcache.tags.tagsInUse                  512                       # Average ticks per tags in use ((Tick/Count))
system.cpu.dcache.tags.totalRefs             21992976                       # Total number of references to valid blocks. (Count)
system.cpu.dcache.tags.sampledRefs             744249                       # Sample count of references to valid blocks. (Count)
system.cpu.dcache.tags.avgRefs              29.550562                       # Average number of references to valid blocks. ((Count/Count))
system.cpu.dcache.tags.warmupTick                   0                       # The tick when the warmup percentage was hit. (Tick)
system.cpu.dcache.tags.occupancies::switch_cpus.data     9.390818                       # Average occupied blocks per tick, per requestor ((Count/Tick))
system.cpu.dcache.tags.occupancies::switch_cpus_1.data   502.609182                       # Average occupied blocks per tick, per requestor ((Count/Tick))
system.cpu.dcache.tags.avgOccs::switch_cpus.data     0.018341                       # Average percentage of cache occupancy ((Ratio/Tick))
system.cpu.dcache.tags.avgOccs::switch_cpus_1.data     0.981659                       # Average percentage of cache occupancy ((Ratio/Tick))
system.cpu.dcache.tags.avgOccs::total               1                       # Average percentage of cache occupancy ((Ratio/Tick))
system.cpu.dcache.tags.occupanciesTaskId::1024          512                       # Occupied blocks per task id (Count)
system.cpu.dcache.tags.ageTaskId_1024::0          122                       # Occupied blocks per task id, per block age (Count)
system.cpu.dcache.tags.ageTaskId_1024::1          380                       # Occupied blocks per task id, per block age (Count)
system.cpu.dcache.tags.ageTaskId_1024::2           10                       # Occupied blocks per task id, per block age (Count)
system.cpu.dcache.tags.ratioOccsTaskId::1024            1                       # Ratio of occupied blocks and all blocks, per task id (Ratio)
system.cpu.dcache.tags.tagAccesses           43335515                       # Number of tag accesses (Count)
system.cpu.dcache.tags.dataAccesses          43335515                       # Number of data accesses (Count)
system.cpu.dcache.tags.power_state.pwrStateResidencyTicks::UNDEFINED 779385065000                       # Cumulative time (in ticks) in various power states (Tick)
system.cpu.dtb_walker_cache.blockedCycles::no_mshrs            0                       # number of cycles access was blocked (Cycle)
system.cpu.dtb_walker_cache.blockedCycles::no_targets            0                       # number of cycles access was blocked (Cycle)
system.cpu.dtb_walker_cache.blockedCauses::no_mshrs            0                       # number of times access was blocked (Count)
system.cpu.dtb_walker_cache.blockedCauses::no_targets            0                       # number of times access was blocked (Count)
system.cpu.dtb_walker_cache.avgBlocked::no_mshrs          nan                       # average number of cycles each access was blocked ((Cycle/Count))
system.cpu.dtb_walker_cache.avgBlocked::no_targets          nan                       # average number of cycles each access was blocked ((Cycle/Count))
system.cpu.dtb_walker_cache.replacements            0                       # number of replacements (Count)
system.cpu.dtb_walker_cache.power_state.pwrStateResidencyTicks::UNDEFINED 779385065000                       # Cumulative time (in ticks) in various power states (Tick)
system.cpu.dtb_walker_cache.tags.tagsInUse            0                       # Average ticks per tags in use ((Tick/Count))
system.cpu.dtb_walker_cache.tags.totalRefs            0                       # Total number of references to valid blocks. (Count)
system.cpu.dtb_walker_cache.tags.sampledRefs            0                       # Sample count of references to valid blocks. (Count)
system.cpu.dtb_walker_cache.tags.avgRefs          nan                       # Average number of references to valid blocks. ((Count/Count))
system.cpu.dtb_walker_cache.tags.warmupTick            0                       # The tick when the warmup percentage was hit. (Tick)
system.cpu.dtb_walker_cache.tags.tagAccesses            0                       # Number of tag accesses (Count)
system.cpu.dtb_walker_cache.tags.dataAccesses            0                       # Number of data accesses (Count)
system.cpu.dtb_walker_cache.tags.power_state.pwrStateResidencyTicks::UNDEFINED 779385065000                       # Cumulative time (in ticks) in various power states (Tick)
system.cpu.exec_context.thread_0.numMatAluAccesses            0                       # Number of matrix alu accesses (Count)
system.cpu.exec_context.thread_0.numCallsReturns            0                       # Number of times a function call or return occured (Count)
system.cpu.exec_context.thread_0.numMatInsts            0                       # Number of matrix instructions (Count)
system.cpu.exec_context.thread_0.numIdleCycles            0                       # Number of idle cycles (Cycle)
system.cpu.exec_context.thread_0.numBusyCycles            0                       # Number of busy cycles (Cycle)
system.cpu.exec_context.thread_0.notIdleFraction            1                       # Percentage of non-idle cycles (Ratio)
system.cpu.exec_context.thread_0.idleFraction            0                       # Percentage of idle cycles (Ratio)
system.cpu.executeStats0.numInsts                   0                       # Number of executed instructions (Count)
system.cpu.executeStats0.numNop                     0                       # Number of nop insts executed (Count)
system.cpu.executeStats0.numBranches                0                       # Number of branches executed (Count)
system.cpu.executeStats0.numLoadInsts               0                       # Number of load instructions executed (Count)
system.cpu.executeStats0.numStoreInsts              0                       # Number of stores executed (Count)
system.cpu.executeStats0.instRate                 nan                       # Inst execution rate ((Count/Cycle))
system.cpu.executeStats0.numFpRegWrites             0                       # Number of times the floating registers were written (Count)
system.cpu.executeStats0.numMemRefs                 0                       # Number of memory refs (Count)
system.cpu.executeStats0.numVecAluAccesses            0                       # Number of vector alu accesses (Count)
system.cpu.executeStats0.numDiscardedOps            0                       # Number of ops (including micro ops) which were discarded before commit (Count)
system.cpu.fetchStats0.numInsts                     0                       # Number of instructions fetched (thread level) (Count)
system.cpu.fetchStats0.numOps                       0                       # Number of ops (including micro ops) fetched (thread level) (Count)
system.cpu.fetchStats0.fetchRate                  nan                       # Number of inst fetches per cycle ((Count/Cycle))
system.cpu.fetchStats0.branchRate                 nan                       # Number of branch fetches per cycle (Ratio)
system.cpu.fetchStats0.numFetchSuspends             0                       # Number of times Execute suspended instruction fetching (Count)
system.cpu.icache.demandHits::switch_cpus_1.inst      7525099                       # number of demand (read+write) hits (Count)
system.cpu.icache.demandHits::total           7525099                       # number of demand (read+write) hits (Count)
system.cpu.icache.overallHits::switch_cpus_1.inst      7525099                       # number of overall hits (Count)
system.cpu.icache.overallHits::total          7525099                       # number of overall hits (Count)
system.cpu.icache.demandMisses::switch_cpus_1.inst          143                       # number of demand (read+write) misses (Count)
system.cpu.icache.demandMisses::total             143                       # number of demand (read+write) misses (Count)
system.cpu.icache.overallMisses::switch_cpus_1.inst          143                       # number of overall misses (Count)
system.cpu.icache.overallMisses::total            143                       # number of overall misses (Count)
system.cpu.icache.demandMissLatency::switch_cpus_1.inst     10882000                       # number of demand (read+write) miss ticks (Tick)
system.cpu.icache.demandMissLatency::total     10882000                       # number of demand (read+write) miss ticks (Tick)
system.cpu.icache.overallMissLatency::switch_cpus_1.inst     10882000                       # number of overall miss ticks (Tick)
system.cpu.icache.overallMissLatency::total     10882000                       # number of overall miss ticks (Tick)
system.cpu.icache.demandAccesses::switch_cpus_1.inst      7525242                       # number of demand (read+write) accesses (Count)
system.cpu.icache.demandAccesses::total       7525242                       # number of demand (read+write) accesses (Count)
system.cpu.icache.overallAccesses::switch_cpus_1.inst      7525242                       # number of overall (read+write) accesses (Count)
system.cpu.icache.overallAccesses::total      7525242                       # number of overall (read+write) accesses (Count)
system.cpu.icache.demandMissRate::switch_cpus_1.inst     0.000019                       # miss rate for demand accesses (Ratio)
system.cpu.icache.demandMissRate::total      0.000019                       # miss rate for demand accesses (Ratio)
system.cpu.icache.overallMissRate::switch_cpus_1.inst     0.000019                       # miss rate for overall accesses (Ratio)
system.cpu.icache.overallMissRate::total     0.000019                       # miss rate for overall accesses (Ratio)
system.cpu.icache.demandAvgMissLatency::switch_cpus_1.inst 76097.902098                       # average overall miss latency in ticks ((Tick/Count))
system.cpu.icache.demandAvgMissLatency::total 76097.902098                       # average overall miss latency in ticks ((Tick/Count))
system.cpu.icache.overallAvgMissLatency::switch_cpus_1.inst 76097.902098                       # average overall miss latency ((Tick/Count))
system.cpu.icache.overallAvgMissLatency::total 76097.902098                       # average overall miss latency ((Tick/Count))
system.cpu.icache.blockedCycles::no_mshrs           44                       # number of cycles access was blocked (Cycle)
system.cpu.icache.blockedCycles::no_targets            0                       # number of cycles access was blocked (Cycle)
system.cpu.icache.blockedCauses::no_mshrs            1                       # number of times access was blocked (Count)
system.cpu.icache.blockedCauses::no_targets            0                       # number of times access was blocked (Count)
system.cpu.icache.avgBlocked::no_mshrs             44                       # average number of cycles each access was blocked ((Cycle/Count))
system.cpu.icache.avgBlocked::no_targets          nan                       # average number of cycles each access was blocked ((Cycle/Count))
system.cpu.icache.writebacks::writebacks          105                       # number of writebacks (Count)
system.cpu.icache.writebacks::total               105                       # number of writebacks (Count)
system.cpu.icache.demandMshrHits::switch_cpus_1.inst           34                       # number of demand (read+write) MSHR hits (Count)
system.cpu.icache.demandMshrHits::total            34                       # number of demand (read+write) MSHR hits (Count)
system.cpu.icache.overallMshrHits::switch_cpus_1.inst           34                       # number of overall MSHR hits (Count)
system.cpu.icache.overallMshrHits::total           34                       # number of overall MSHR hits (Count)
system.cpu.icache.demandMshrMisses::switch_cpus_1.inst          109                       # number of demand (read+write) MSHR misses (Count)
system.cpu.icache.demandMshrMisses::total          109                       # number of demand (read+write) MSHR misses (Count)
system.cpu.icache.overallMshrMisses::switch_cpus_1.inst          109                       # number of overall MSHR misses (Count)
system.cpu.icache.overallMshrMisses::total          109                       # number of overall MSHR misses (Count)
system.cpu.icache.demandMshrMissLatency::switch_cpus_1.inst      9120500                       # number of demand (read+write) MSHR miss ticks (Tick)
system.cpu.icache.demandMshrMissLatency::total      9120500                       # number of demand (read+write) MSHR miss ticks (Tick)
system.cpu.icache.overallMshrMissLatency::switch_cpus_1.inst      9120500                       # number of overall MSHR miss ticks (Tick)
system.cpu.icache.overallMshrMissLatency::total      9120500                       # number of overall MSHR miss ticks (Tick)
system.cpu.icache.demandMshrMissRate::switch_cpus_1.inst     0.000014                       # mshr miss ratio for demand accesses (Ratio)
system.cpu.icache.demandMshrMissRate::total     0.000014                       # mshr miss ratio for demand accesses (Ratio)
system.cpu.icache.overallMshrMissRate::switch_cpus_1.inst     0.000014                       # mshr miss ratio for overall accesses (Ratio)
system.cpu.icache.overallMshrMissRate::total     0.000014                       # mshr miss ratio for overall accesses (Ratio)
system.cpu.icache.demandAvgMshrMissLatency::switch_cpus_1.inst 83674.311927                       # average overall mshr miss latency ((Tick/Count))
system.cpu.icache.demandAvgMshrMissLatency::total 83674.311927                       # average overall mshr miss latency ((Tick/Count))
system.cpu.icache.overallAvgMshrMissLatency::switch_cpus_1.inst 83674.311927                       # average overall mshr miss latency ((Tick/Count))
system.cpu.icache.overallAvgMshrMissLatency::total 83674.311927                       # average overall mshr miss latency ((Tick/Count))
system.cpu.icache.replacements                    105                       # number of replacements (Count)
system.cpu.icache.ReadReq.hits::switch_cpus_1.inst      7525099                       # number of ReadReq hits (Count)
system.cpu.icache.ReadReq.hits::total         7525099                       # number of ReadReq hits (Count)
system.cpu.icache.ReadReq.misses::switch_cpus_1.inst          143                       # number of ReadReq misses (Count)
system.cpu.icache.ReadReq.misses::total           143                       # number of ReadReq misses (Count)
system.cpu.icache.ReadReq.missLatency::switch_cpus_1.inst     10882000                       # number of ReadReq miss ticks (Tick)
system.cpu.icache.ReadReq.missLatency::total     10882000                       # number of ReadReq miss ticks (Tick)
system.cpu.icache.ReadReq.accesses::switch_cpus_1.inst      7525242                       # number of ReadReq accesses(hits+misses) (Count)
system.cpu.icache.ReadReq.accesses::total      7525242                       # number of ReadReq accesses(hits+misses) (Count)
system.cpu.icache.ReadReq.missRate::switch_cpus_1.inst     0.000019                       # miss rate for ReadReq accesses (Ratio)
system.cpu.icache.ReadReq.missRate::total     0.000019                       # miss rate for ReadReq accesses (Ratio)
system.cpu.icache.ReadReq.avgMissLatency::switch_cpus_1.inst 76097.902098                       # average ReadReq miss latency ((Tick/Count))
system.cpu.icache.ReadReq.avgMissLatency::total 76097.902098                       # average ReadReq miss latency ((Tick/Count))
system.cpu.icache.ReadReq.mshrHits::switch_cpus_1.inst           34                       # number of ReadReq MSHR hits (Count)
system.cpu.icache.ReadReq.mshrHits::total           34                       # number of ReadReq MSHR hits (Count)
system.cpu.icache.ReadReq.mshrMisses::switch_cpus_1.inst          109                       # number of ReadReq MSHR misses (Count)
system.cpu.icache.ReadReq.mshrMisses::total          109                       # number of ReadReq MSHR misses (Count)
system.cpu.icache.ReadReq.mshrMissLatency::switch_cpus_1.inst      9120500                       # number of ReadReq MSHR miss ticks (Tick)
system.cpu.icache.ReadReq.mshrMissLatency::total      9120500                       # number of ReadReq MSHR miss ticks (Tick)
system.cpu.icache.ReadReq.mshrMissRate::switch_cpus_1.inst     0.000014                       # mshr miss rate for ReadReq accesses (Ratio)
system.cpu.icache.ReadReq.mshrMissRate::total     0.000014                       # mshr miss rate for ReadReq accesses (Ratio)
system.cpu.icache.ReadReq.avgMshrMissLatency::switch_cpus_1.inst 83674.311927                       # average ReadReq mshr miss latency ((Tick/Count))
system.cpu.icache.ReadReq.avgMshrMissLatency::total 83674.311927                       # average ReadReq mshr miss latency ((Tick/Count))
system.cpu.icache.power_state.pwrStateResidencyTicks::UNDEFINED 779385065000                       # Cumulative time (in ticks) in various power states (Tick)
system.cpu.icache.tags.tagsInUse           508.009455                       # Average ticks per tags in use ((Tick/Count))
system.cpu.icache.tags.totalRefs             16628782                       # Total number of references to valid blocks. (Count)
system.cpu.icache.tags.sampledRefs                615                       # Sample count of references to valid blocks. (Count)
system.cpu.icache.tags.avgRefs           27038.669919                       # Average number of references to valid blocks. ((Count/Count))
system.cpu.icache.tags.warmupTick                   0                       # The tick when the warmup percentage was hit. (Tick)
system.cpu.icache.tags.occupancies::cpu.inst   137.166113                       # Average occupied blocks per tick, per requestor ((Count/Tick))
system.cpu.icache.tags.occupancies::switch_cpus.inst   312.560524                       # Average occupied blocks per tick, per requestor ((Count/Tick))
system.cpu.icache.tags.occupancies::switch_cpus_1.inst    58.282818                       # Average occupied blocks per tick, per requestor ((Count/Tick))
system.cpu.icache.tags.avgOccs::cpu.inst     0.267903                       # Average percentage of cache occupancy ((Ratio/Tick))
system.cpu.icache.tags.avgOccs::switch_cpus.inst     0.610470                       # Average percentage of cache occupancy ((Ratio/Tick))
system.cpu.icache.tags.avgOccs::switch_cpus_1.inst     0.113834                       # Average percentage of cache occupancy ((Ratio/Tick))
system.cpu.icache.tags.avgOccs::total        0.992206                       # Average percentage of cache occupancy ((Ratio/Tick))
system.cpu.icache.tags.occupanciesTaskId::1024          510                       # Occupied blocks per task id (Count)
system.cpu.icache.tags.ageTaskId_1024::3            3                       # Occupied blocks per task id, per block age (Count)
system.cpu.icache.tags.ageTaskId_1024::4          507                       # Occupied blocks per task id, per block age (Count)
system.cpu.icache.tags.ratioOccsTaskId::1024     0.996094                       # Ratio of occupied blocks and all blocks, per task id (Ratio)
system.cpu.icache.tags.tagAccesses           15050593                       # Number of tag accesses (Count)
system.cpu.icache.tags.dataAccesses          15050593                       # Number of data accesses (Count)
system.cpu.icache.tags.power_state.pwrStateResidencyTicks::UNDEFINED 779385065000                       # Cumulative time (in ticks) in various power states (Tick)
system.cpu.interrupts.clk_domain.clock           8000                       # Clock period in ticks (Tick)
system.cpu.itb_walker_cache.blockedCycles::no_mshrs            0                       # number of cycles access was blocked (Cycle)
system.cpu.itb_walker_cache.blockedCycles::no_targets            0                       # number of cycles access was blocked (Cycle)
system.cpu.itb_walker_cache.blockedCauses::no_mshrs            0                       # number of times access was blocked (Count)
system.cpu.itb_walker_cache.blockedCauses::no_targets            0                       # number of times access was blocked (Count)
system.cpu.itb_walker_cache.avgBlocked::no_mshrs          nan                       # average number of cycles each access was blocked ((Cycle/Count))
system.cpu.itb_walker_cache.avgBlocked::no_targets          nan                       # average number of cycles each access was blocked ((Cycle/Count))
system.cpu.itb_walker_cache.replacements            0                       # number of replacements (Count)
system.cpu.itb_walker_cache.power_state.pwrStateResidencyTicks::UNDEFINED 779385065000                       # Cumulative time (in ticks) in various power states (Tick)
system.cpu.itb_walker_cache.tags.tagsInUse            0                       # Average ticks per tags in use ((Tick/Count))
system.cpu.itb_walker_cache.tags.totalRefs            0                       # Total number of references to valid blocks. (Count)
system.cpu.itb_walker_cache.tags.sampledRefs            0                       # Sample count of references to valid blocks. (Count)
system.cpu.itb_walker_cache.tags.avgRefs          nan                       # Average number of references to valid blocks. ((Count/Count))
system.cpu.itb_walker_cache.tags.warmupTick            0                       # The tick when the warmup percentage was hit. (Tick)
system.cpu.itb_walker_cache.tags.tagAccesses            0                       # Number of tag accesses (Count)
system.cpu.itb_walker_cache.tags.dataAccesses            0                       # Number of data accesses (Count)
system.cpu.itb_walker_cache.tags.power_state.pwrStateResidencyTicks::UNDEFINED 779385065000                       # Cumulative time (in ticks) in various power states (Tick)
system.cpu.mmu.dtb.rdAccesses                       0                       # TLB accesses on read requests (Count)
system.cpu.mmu.dtb.wrAccesses                       0                       # TLB accesses on write requests (Count)
system.cpu.mmu.dtb.rdMisses                         0                       # TLB misses on read requests (Count)
system.cpu.mmu.dtb.wrMisses                         0                       # TLB misses on write requests (Count)
system.cpu.mmu.dtb.walker.power_state.pwrStateResidencyTicks::UNDEFINED 779385065000                       # Cumulative time (in ticks) in various power states (Tick)
system.cpu.mmu.itb.rdAccesses                       0                       # TLB accesses on read requests (Count)
[...]
system.switch_cpus_1.iew.dispNonSpecInsts            0                       # Number of dispatched non-speculative instructions (Count)
system.switch_cpus_1.iew.iqFullEvents           80469                       # Number of times the IQ has become full, causing a stall (Count)
system.switch_cpus_1.iew.lsqFullEvents        6518105                       # Number of times the LSQ has become full, causing a stall (Count)
system.switch_cpus_1.iew.memOrderViolationEvents         2277                       # Number of memory order violations (Count)
system.switch_cpus_1.iew.predictedTakenIncorrect       162498                       # Number of branches that were predicted taken incorrectly (Count)
system.switch_cpus_1.iew.predictedNotTakenIncorrect       184895                       # Number of branches that were predicted not taken incorrectly (Count)
system.switch_cpus_1.iew.branchMispredicts       347393                       # Number of branch mispredicts detected at execute (Count)
system.switch_cpus_1.iew.instsToCommit       92087793                       # Cumulative count of insts sent to commit (Count)
system.switch_cpus_1.iew.writebackCount      91845883                       # Cumulative count of insts written-back (Count)
system.switch_cpus_1.iew.producerInst        70341041                       # Number of instructions producing a value (Count)
system.switch_cpus_1.iew.consumerInst       103918175                       # Number of instructions consuming a value (Count)
system.switch_cpus_1.iew.wbRate              1.522418                       # Insts written-back per cycle ((Count/Cycle))
system.switch_cpus_1.iew.wbFanout            0.676889                       # Average fanout of values written-back ((Count/Count))
system.switch_cpus_1.lsq0.forwLoads           5801602                       # Number of loads that had data forwarded from stores (Count)
system.switch_cpus_1.lsq0.squashedLoads       3497480                       # Number of loads squashed (Count)
system.switch_cpus_1.lsq0.ignoredResponses        12703                       # Number of memory responses ignored because the instruction is squashed (Count)
system.switch_cpus_1.lsq0.memOrderViolation         2277                       # Number of memory ordering violations (Count)
system.switch_cpus_1.lsq0.squashedStores      1422790                       # Number of stores squashed (Count)
system.switch_cpus_1.lsq0.rescheduledLoads           14                       # Number of loads that were rescheduled (Count)
system.switch_cpus_1.lsq0.blockedByCache        94555                       # Number of times an access to memory failed due to the cache being blocked (Count)
system.switch_cpus_1.lsq0.loadToUse::samples     16929090                       # Distribution of cycle latency between the first time a load is issued and its completion (Unspecified)
system.switch_cpus_1.lsq0.loadToUse::mean     6.241821                       # Distribution of cycle latency between the first time a load is issued and its completion (Unspecified)
system.switch_cpus_1.lsq0.loadToUse::stdev    28.471680                       # Distribution of cycle latency between the first time a load is issued and its completion (Unspecified)
system.switch_cpus_1.lsq0.loadToUse::0-9     16292468     96.24%     96.24% # Distribution of cycle latency between the first time a load is issued and its completion (Unspecified)
system.switch_cpus_1.lsq0.loadToUse::10-19        23630      0.14%     96.38% # Distribution of cycle latency between the first time a load is issued and its completion (Unspecified)
system.switch_cpus_1.lsq0.loadToUse::20-29       302460      1.79%     98.17% # Distribution of cycle latency between the first time a load is issued and its completion (Unspecified)
system.switch_cpus_1.lsq0.loadToUse::30-39        14799      0.09%     98.25% # Distribution of cycle latency between the first time a load is issued and its completion (Unspecified)
system.switch_cpus_1.lsq0.loadToUse::40-49         7871      0.05%     98.30% # Distribution of cycle latency between the first time a load is issued and its completion (Unspecified)
system.switch_cpus_1.lsq0.loadToUse::50-59         5238      0.03%     98.33% # Distribution of cycle latency between the first time a load is issued and its completion (Unspecified)
system.switch_cpus_1.lsq0.loadToUse::60-69         4167      0.02%     98.36% # Distribution of cycle latency between the first time a load is issued and its completion (Unspecified)
system.switch_cpus_1.lsq0.loadToUse::70-79        15188      0.09%     98.44% # Distribution of cycle latency between the first time a load is issued and its completion (Unspecified)
system.switch_cpus_1.lsq0.loadToUse::80-89         5781      0.03%     98.48% # Distribution of cycle latency between the first time a load is issued and its completion (Unspecified)
system.switch_cpus_1.lsq0.loadToUse::90-99         6532      0.04%     98.52% # Distribution of cycle latency between the first time a load is issued and its completion (Unspecified)
system.switch_cpus_1.lsq0.loadToUse::100-109         9177      0.05%     98.57% # Distribution of cycle latency between the first time a load is issued and its completion (Unspecified)
system.switch_cpus_1.lsq0.loadToUse::110-119         9874      0.06%     98.63% # Distribution of cycle latency between the first time a load is issued and its completion (Unspecified)
system.switch_cpus_1.lsq0.loadToUse::120-129        21002      0.12%     98.75% # Distribution of cycle latency between the first time a load is issued and its completion (Unspecified)
system.switch_cpus_1.lsq0.loadToUse::130-139        84305      0.50%     99.25% # Distribution of cycle latency between the first time a load is issued and its completion (Unspecified)
system.switch_cpus_1.lsq0.loadToUse::140-149        11011      0.07%     99.32% # Distribution of cycle latency between the first time a load is issued and its completion (Unspecified)
system.switch_cpus_1.lsq0.loadToUse::150-159        16573      0.10%     99.42% # Distribution of cycle latency between the first time a load is issued and its completion (Unspecified)
system.switch_cpus_1.lsq0.loadToUse::160-169        22251      0.13%     99.55% # Distribution of cycle latency between the first time a load is issued and its completion (Unspecified)
system.switch_cpus_1.lsq0.loadToUse::170-179         7628      0.05%     99.59% # Distribution of cycle latency between the first time a load is issued and its completion (Unspecified)
system.switch_cpus_1.lsq0.loadToUse::180-189        23572      0.14%     99.73% # Distribution of cycle latency between the first time a load is issued and its completion (Unspecified)
system.switch_cpus_1.lsq0.loadToUse::190-199         5268      0.03%     99.76% # Distribution of cycle latency between the first time a load is issued and its completion (Unspecified)
system.switch_cpus_1.lsq0.loadToUse::200-209         2435      0.01%     99.78% # Distribution of cycle latency between the first time a load is issued and its completion (Unspecified)
system.switch_cpus_1.lsq0.loadToUse::210-219         1534      0.01%     99.79% # Distribution of cycle latency between the first time a load is issued and its completion (Unspecified)
system.switch_cpus_1.lsq0.loadToUse::220-229         1494      0.01%     99.79% # Distribution of cycle latency between the first time a load is issued and its completion (Unspecified)
system.switch_cpus_1.lsq0.loadToUse::230-239         1446      0.01%     99.80% # Distribution of cycle latency between the first time a load is issued and its completion (Unspecified)
system.switch_cpus_1.lsq0.loadToUse::240-249         1632      0.01%     99.81% # Distribution of cycle latency between the first time a load is issued and its completion (Unspecified)
system.switch_cpus_1.lsq0.loadToUse::250-259         1476      0.01%     99.82% # Distribution of cycle latency between the first time a load is issued and its completion (Unspecified)
system.switch_cpus_1.lsq0.loadToUse::260-269         1218      0.01%     99.83% # Distribution of cycle latency between the first time a load is issued and its completion (Unspecified)
system.switch_cpus_1.lsq0.loadToUse::270-279         1402      0.01%     99.84% # Distribution of cycle latency between the first time a load is issued and its completion (Unspecified)
system.switch_cpus_1.lsq0.loadToUse::280-289         1724      0.01%     99.85% # Distribution of cycle latency between the first time a load is issued and its completion (Unspecified)
system.switch_cpus_1.lsq0.loadToUse::290-299         1464      0.01%     99.86% # Distribution of cycle latency between the first time a load is issued and its completion (Unspecified)
system.switch_cpus_1.lsq0.loadToUse::overflows        24470      0.14%    100.00% # Distribution of cycle latency between the first time a load is issued and its completion (Unspecified)
system.switch_cpus_1.lsq0.loadToUse::min_value            2                       # Distribution of cycle latency between the first time a load is issued and its completion (Unspecified)
system.switch_cpus_1.lsq0.loadToUse::max_value         1775                       # Distribution of cycle latency between the first time a load is issued and its completion (Unspecified)
system.switch_cpus_1.lsq0.loadToUse::total     16929090                       # Distribution of cycle latency between the first time a load is issued and its completion (Unspecified)
system.switch_cpus_1.mmu.dtb.rdAccesses      19176746                       # TLB accesses on read requests (Count)
system.switch_cpus_1.mmu.dtb.wrAccesses       8884517                       # TLB accesses on write requests (Count)
system.switch_cpus_1.mmu.dtb.rdMisses           99326                       # TLB misses on read requests (Count)
system.switch_cpus_1.mmu.dtb.wrMisses          359254                       # TLB misses on write requests (Count)
system.switch_cpus_1.mmu.dtb.walker.power_state.pwrStateResidencyTicks::UNDEFINED 779385065000                       # Cumulative time (in ticks) in various power states (Tick)
system.switch_cpus_1.mmu.itb.rdAccesses             0                       # TLB accesses on read requests (Count)
system.switch_cpus_1.mmu.itb.wrAccesses       7525307                       # TLB accesses on write requests (Count)
system.switch_cpus_1.mmu.itb.rdMisses               0                       # TLB misses on read requests (Count)
system.switch_cpus_1.mmu.itb.wrMisses              75                       # TLB misses on write requests (Count)
system.switch_cpus_1.mmu.itb.walker.power_state.pwrStateResidencyTicks::UNDEFINED 779385065000                       # Cumulative time (in ticks) in various power states (Tick)
system.switch_cpus_1.power_state.pwrStateResidencyTicks::OFF 779385065000                       # Cumulative time (in ticks) in various power states (Tick)
system.switch_cpus_1.rename.squashCycles       330612                       # Number of cycles rename is squashing (Cycle)
system.switch_cpus_1.rename.idleCycles        6793125                       # Number of cycles rename is idle (Cycle)
system.switch_cpus_1.rename.blockCycles      17773823                       # Number of cycles rename is blocking (Cycle)
system.switch_cpus_1.rename.serializeStallCycles            0                       # count of cycles rename stalled for serializing inst (Cycle)
system.switch_cpus_1.rename.runCycles        12735139                       # Number of cycles rename is running (Cycle)
system.switch_cpus_1.rename.unblockCycles     22690674                       # Number of cycles rename is unblocking (Cycle)
system.switch_cpus_1.rename.renamedInsts    101338157                       # Number of instructions processed by rename (Count)
system.switch_cpus_1.rename.ROBFullEvents       178828                       # Number of times rename has blocked due to ROB full (Count)
system.switch_cpus_1.rename.IQFullEvents      4734776                       # Number of times rename has blocked due to IQ full (Count)
system.switch_cpus_1.rename.LQFullEvents      1339792                       # Number of times rename has blocked due to LQ full (Count)
system.switch_cpus_1.rename.SQFullEvents     15939932                       # Number of times rename has blocked due to SQ full (Count)
system.switch_cpus_1.rename.renamedOperands    181474691                       # Number of destination operands rename has renamed (Count)
system.switch_cpus_1.rename.lookups         357637265                       # Number of register rename lookups that rename has made (Count)
system.switch_cpus_1.rename.intLookups      140360947                       # Number of integer rename lookups (Count)
system.switch_cpus_1.rename.fpLookups          296841                       # Number of floating rename lookups (Count)
system.switch_cpus_1.rename.committedMaps    149738327                       # Number of HB maps that are committed (Count)
system.switch_cpus_1.rename.undoneMaps       31736245                       # Number of HB maps that are undone due to squashing (Count)
system.switch_cpus_1.rename.serializing             0                       # count of serializing insts renamed (Count)
system.switch_cpus_1.rename.tempSerializing            0                       # count of temporary serializing insts renamed (Count)
system.switch_cpus_1.rename.skidInsts        19954660                       # count of insts added to the skid buffer (Count)
system.switch_cpus_1.rob.reads              151666174                       # The number of ROB reads (Count)
system.switch_cpus_1.rob.writes             199790071                       # The number of ROB writes (Count)
system.switch_cpus_1.thread_0.numInsts       50000004                       # Number of Instructions committed (Count)
system.switch_cpus_1.thread_0.numOps         81130752                       # Number of Ops committed (Count)
system.switch_cpus_1.thread_0.numMemRefs            0                       # Number of Memory References (Count)
system.tol2bus.transDist::ReadResp             438616                       # Transaction distribution (Count)
system.tol2bus.transDist::WritebackDirty       710043                       # Transaction distribution (Count)
system.tol2bus.transDist::WritebackClean          105                       # Transaction distribution (Count)
system.tol2bus.transDist::CleanEvict           274766                       # Transaction distribution (Count)
system.tol2bus.transDist::HardPFReq              1750                       # Transaction distribution (Count)
system.tol2bus.transDist::ReadExReq            305230                       # Transaction distribution (Count)
system.tol2bus.transDist::ReadExResp           305230                       # Transaction distribution (Count)
system.tol2bus.transDist::ReadCleanReq            109                       # Transaction distribution (Count)
system.tol2bus.transDist::ReadSharedReq        438507                       # Transaction distribution (Count)
system.tol2bus.pktCount_system.cpu.icache.mem_side_port::system.l2.cpu_side_port          323                       # Packet count per connected requestor and responder (Count)
system.tol2bus.pktCount_system.cpu.dcache.mem_side_port::system.l2.cpu_side_port      2231211                       # Packet count per connected requestor and responder (Count)
system.tol2bus.pktCount::total                2231534                       # Packet count per connected requestor and responder (Count)
system.tol2bus.pktSize_system.cpu.icache.mem_side_port::system.l2.cpu_side_port        13696                       # Cumulative packet size per connected requestor and responder (Byte)
system.tol2bus.pktSize_system.cpu.dcache.mem_side_port::system.l2.cpu_side_port     83624064                       # Cumulative packet size per connected requestor and responder (Byte)
system.tol2bus.pktSize::total                83637760                       # Cumulative packet size per connected requestor and responder (Byte)
system.tol2bus.snoops                          242822                       # Total snoops (Count)
system.tol2bus.snoopTraffic                   9417856                       # Total snoop traffic (Byte)
system.tol2bus.snoopFanout::samples            986668                       # Request fanout histogram (Count)
system.tol2bus.snoopFanout::mean             0.000297                       # Request fanout histogram (Count)
system.tol2bus.snoopFanout::stdev            0.017230                       # Request fanout histogram (Count)
system.tol2bus.snoopFanout::underflows              0      0.00%      0.00% # Request fanout histogram (Count)
system.tol2bus.snoopFanout::0                  986375     99.97%     99.97% # Request fanout histogram (Count)
system.tol2bus.snoopFanout::1                     293      0.03%    100.00% # Request fanout histogram (Count)
system.tol2bus.snoopFanout::2                       0      0.00%    100.00% # Request fanout histogram (Count)
system.tol2bus.snoopFanout::3                       0      0.00%    100.00% # Request fanout histogram (Count)
system.tol2bus.snoopFanout::4                       0      0.00%    100.00% # Request fanout histogram (Count)
system.tol2bus.snoopFanout::overflows               0      0.00%    100.00% # Request fanout histogram (Count)
system.tol2bus.snoopFanout::min_value               0                       # Request fanout histogram (Count)
system.tol2bus.snoopFanout::max_value               1                       # Request fanout histogram (Count)
system.tol2bus.snoopFanout::total              986668                       # Request fanout histogram (Count)
system.tol2bus.power_state.pwrStateResidencyTicks::UNDEFINED 779385065000                       # Cumulative time (in ticks) in various power states (Tick)
system.tol2bus.reqLayer0.occupancy         1306838000                       # Layer occupancy (ticks) (Tick)
system.tol2bus.reqLayer0.utilization              0.0                       # Layer utilization (Ratio)
system.tol2bus.respLayer0.occupancy            163500                       # Layer occupancy (ticks) (Tick)
system.tol2bus.respLayer0.utilization             0.0                       # Layer utilization (Ratio)
system.tol2bus.respLayer1.occupancy        1115605500                       # Layer occupancy (ticks) (Tick)
system.tol2bus.respLayer1.utilization             0.0                       # Layer utilization (Ratio)
system.tol2bus.snoop_filter.totRequests       1487688                       # Total number of requests made to the snoop filter. (Count)
system.tol2bus.snoop_filter.hitSingleRequests       743842                       # Number of requests hitting in the snoop filter with a single holder of the requested data. (Count)
system.tol2bus.snoop_filter.hitMultiRequests            0                       # Number of requests hitting in the snoop filter with multiple (>1) holders of the requested data. (Count)
system.tol2bus.snoop_filter.totSnoops             293                       # Total number of snoops made to the snoop filter. (Count)
system.tol2bus.snoop_filter.hitSingleSnoops          293                       # Number of snoops hitting in the snoop filter with a single holder of the requested data. (Count)
system.tol2bus.snoop_filter.hitMultiSnoops            0                       # Number of snoops hitting in the snoop filter with multiple (>1) holders of the requested data. (Count)
system.voltage_domain.voltage                       1                       # Voltage in Volts (Volt)
system.workload.inst.arm                            0                       # number of arm instructions executed (Count)
system.workload.inst.quiesce                        0                       # number of quiesce instructions executed (Count)

---------- End Simulation Statistics   ----------
